# Ti3C2Se2 MXene
# DFT-generated structure
# Selenium-terminated Ti3C2 MXene
# Theoretical model for computational studies

data_Ti3C2Se2
_symmetry_space_group_name_H-M   'P 1'
_cell_length_a   3.066605
_cell_length_b   3.066605
_cell_length_c   20.000000
_cell_angle_alpha   90
_cell_angle_beta    90
_cell_angle_gamma   120
_symmetry_Int_Tables_number   1

_chemical_formula_structural   Ti3C2Se2
_chemical_formula_sum   'Ti6 C4 Se4'
_cell_formula_units_Z   2

loop_
 _symmetry_equiv_pos_site_id
 _symmetry_equiv_pos_as_xyz
  1  'x, y, z'

loop_
 _atom_type_symbol
 _atom_type_oxidation_number
  Ti  0
  C   0
  Se  0

loop_
 _atom_site_type_symbol
 _atom_site_label
 _atom_site_symmetry_multiplicity
 _atom_site_fract_x
 _atom_site_fract_y
 _atom_site_fract_z
 _atom_site_occupancy

  Ti  Ti1  1  0.000000  0.000000  0.500000  1
  Ti  Ti2  1  0.333333  0.666667  0.380000  1
  Ti  Ti3  1  0.666667  0.333333  0.620000  1

  C   C1   1  0.333333  0.666667  0.440000  1
  C   C2   1  0.666667  0.333333  0.560000  1

  Se  Se1  1  0.333333  0.666667  0.300000  1
  Se  Se2  1  0.666667  0.333333  0.700000  1
